Circuit: * J:\Ltspice_youtube\Draft1.asc

WARNING: Less than two connections to node VOUT.  This node is used by V1.
.OP point found by inspection.

Date: Thu Jul 07 23:06:03 2022
Total elapsed time: 0.074 seconds.

tnom = 27
temp = 27
method = modified trap
totiter = 450
traniter = 450
tranpoints = 226
accept = 148
rejected = 78
matrix size = 2
fillins = 0
solver = Normal
Matrix Compiler1: off  [0.0]/0.1/0.1
Matrix Compiler2: off  [0.0]/0.1/0.0

