Circuit: * J:\Ltspice_youtube\Draft2.asc

WARNING: Less than two connections to node VOUT.  This node is used by V1.
.OP point found by inspection.

Date: Thu Jul 07 22:44:53 2022
Total elapsed time: 0.090 seconds.

tnom = 27
temp = 27
method = modified trap
totiter = 388
traniter = 388
tranpoints = 195
accept = 159
rejected = 36
matrix size = 2
fillins = 0
solver = Normal
Matrix Compiler1:       1 opcodes  0.0/[0.0]/0.0
Matrix Compiler2: 82 bytes object code size  0.0/0.0/[0.0]

