Circuit: * J:\Ltspice_youtube\Draft1.asc

Direct Newton iteration for .op point succeeded.

Date: Mon Jul 11 17:30:21 2022
Total elapsed time: 0.166 seconds.

tnom = 27
temp = 27
method = modified trap
totiter = 3827
traniter = 3824
tranpoints = 1913
accept = 1740
rejected = 173
matrix size = 2
fillins = 0
solver = Normal
Matrix Compiler1:       2 opcodes  0.0/[0.0]/0.1
Matrix Compiler2: off  [0.1]/0.1/0.1

