Circuit: * J:\Ltspice_youtube\Draft1.asc


z: sqrt(pow(30,2)+pow((1000*0.02-1/(1000*2*10**(-6))),2))=(53.6418dB,0°)


Date: Thu Jul 14 18:00:30 2022
Total elapsed time: 0.050 seconds.

tnom = 27
temp = 27
method = trap
totiter = 0
traniter = 0
tranpoints = 0
accept = 0
rejected = 0
matrix size = 4
fillins = 0
solver = Normal

