Circuit: * J:\Ltspice_youtube\Draft1.asc

WARNING: Node N003 is floating.

Direct Newton iteration for .op point succeeded.

Date: Tue Jul 05 15:35:43 2022
Total elapsed time: 0.031 seconds.

tnom = 27
temp = 27
method = trap
totiter = 3
traniter = 0
tranpoints = 0
accept = 0
rejected = 0
matrix size = 5
fillins = 0
solver = Normal
Matrix Compiler1: 186 bytes object code size
Matrix Compiler2: 295 bytes object code size
