Circuit: * J:\Ltspice_youtube\pure_differentiator.asc

WARNING: Specified period is not longer than the sum of Trise, Tfall, and Ton for v1.  Increasing period to 0.04
.OP point found by inspection.

Date: Sat Jul 16 14:10:51 2022
Total elapsed time: 0.098 seconds.

tnom = 27
temp = 27
method = modified trap
totiter = 3370
traniter = 3370
tranpoints = 1686
accept = 1580
rejected = 106
matrix size = 3
fillins = 0
solver = Normal
Matrix Compiler1:       3 opcodes  0.1/[0.0]/0.0
Matrix Compiler2: off  [0.1]/0.1/0.1

