Circuit: * J:\Ltspice_youtube\voltage_divider_circuit.asc

.OP point found by inspection.

Date: Wed Jul 06 13:49:57 2022
Total elapsed time: 0.062 seconds.

tnom = 27
temp = 27
method = trap
totiter = 10
traniter = 0
tranpoints = 0
accept = 0
rejected = 0
matrix size = 3
fillins = 0
solver = Normal
Matrix Compiler1: 50 bytes object code size
Matrix Compiler2: 175 bytes object code size
